/*--------------------------------*- C++ -*----------------------------------*\
| =========                 |                                                 |
| \\      /  F ield         | OpenFOAM: The Open Source CFD Toolbox           |
|  \\    /   O peration     | Version:  v2206                                 |
|   \\  /    A nd           | Website:  www.openfoam.com                      |
|    \\/     M anipulation  |                                                 |
\*---------------------------------------------------------------------------*/
FoamFile
{
    version     2.0;
    format      ascii;
    class       dictionary;
    object      blockMeshDict;
}
// * * * * * * * * * * * * * * * * * * * * * * * * * * * * * * * * * * * * * //

scale   1;

// ***  Include User Data  ***
#include "userBlockMesh"
// 

vertices
(
    ($minx $miny $minz)
    ($maxx $miny $minz)
    ($maxx $maxy $minz)
    ($minx $maxy $minz)
    ($minx $miny $maxz)
    ($maxx $miny $maxz)
    ($maxx $maxy $maxz)
    ($minx $maxy $maxz)
);

blocks
(
//    hex (0 1 2 3 4 5 6 7) ($nx $ny $nz) simpleGrading (1 1 3)

      hex (0 1 2 3 4 5 6 7) ($nx $ny $nz) simpleGrading (
                   (   (0.25 0.15 0.25)
                       (0.5  0.7  1) 
                       (0.25 0.15 4)  )
                   (   (0.25 0.15 0.25)
                       (0.5  0.7  1) 
                       (0.25 0.15 4)  )
                    4
                    )
);

edges
(
);

boundary
(
    Nwall
    {
        type patch;
        faces
        (
            (3 7 6 2)
        );
    }
    Swall
    {
        type patch;
        faces
        (
            (1 5 4 0)
        );
    }
    Wwall
    {
        type patch;
        faces
        (
            (0 4 7 3)
        );
    }
    Ewall
    {
        type patch;
        faces
        (
            (2 6 5 1)
        );
    }
    Bottom
    {
        type wall;
        faces
        (
            (0 3 2 1)
        );
    }
    Top
    {
        type patch;
        faces
        (
            (4 5 6 7)
        );
    }
);


// ************************************************************************* //
