FoamFile
{
    version     2.0;
    format      ascii;
    class       IOobject;
}

//                    Set Uer Input Temparature (K)

internalField   uniform 300;

